data/d_014_ind.m
% Modified IEEE 14-bus test system
% Added induction motors models onto original IEEE 14-bus test system

% Original IEEE 14-bus test system
% is from Power Systems Test Case Archive, University of Washington
% https://labs.ece.uw.edu/pstca/pf14/pg_tca14bus.htm
%


Bus.con = [ ... 
  1  69  1  0  4  1;
  2  69  1  0  4  1;
  3  69  1  0  4  1;
  4  69  1  0  4  1;
  5  69  1  0  4  1;
  6  13.8  1  0  2  1;
  7  13.8  1  0  2  1;
  8  18  1  0  3  1;
  9  13.8  1  0  2  1;
  10  13.8  1  0  2  1;
  11  13.8  1  0  2  1;
  12  13.8  1  0  2  1;
  13  13.8  1  0  2  1;
  14  13.8  1  0  2  1;
 ];

Line.con = [ ... 
  2  5  100  69  60  0  0  0.05695  0.17388  0.034  0  0  0  0  0  1;
  6  12  100  13.8  60  0  0  0.12291  0.25581  0  0  0  0  0  0  1;
  12  13  100  13.8  60  0  0  0.22092  0.19988  0  0  0  0  0  0  1;
  6  13  100  13.8  60  0  0  0.06615  0.13027  0  0  0  0  0  0  1;
  6  11  100  13.8  60  0  0  0.09498  0.1989  0  0  0  0  0  0  1;
  11  10  100  13.8  60  0  0  0.08205  0.19207  0  0  0  0  0  0  1;
  9  10  100  13.8  60  0  0  0.03181  0.0845  0  0  0  0  0  0  1;
  9  14  100  13.8  60  0  0  0.12711  0.27038  0  0  0  0  0  0  1;
  14  13  100  13.8  60  0  0  0.17093  0.34802  0  0  0  0  0  0  1;
  7  9  100  13.8  60  0  0  0  0.11001  0  0  0  0  0  0  1;
  1  2  100  69  60  0  0  0.01938  0.05917  0.0528  0  0  0  0  0  1;
  3  2  100  69  60  0  0  0.04699  0.19797  0.0438  0  0  0  0  0  1;
  3  4  100  69  60  0  0  0.06701  0.17103  0.0346  0  0  0  0  0  1;
  1  5  100  69  60  0  0  0.05403  0.22304  0.0492  0  0  0  0  0  1;
  5  4  100  69  60  0  0  0.01335  0.04211  0.0128  0  0  0  0  0  1;
  2  4  100  69  60  0  0  0.05811  0.17632  0.0374  0  0  0  0  0  1;
  4  9  100  69  60  0  5  0.005  0.55618  0  0.969  5  0  0  0  1;
  5  6  100  69  60  0  5  0  0.25202  0  0.932  0  0  0  0  1;
  4  7  100  69  60  0  5  0  0.20912  0  0.978  0  0  0  0  1;
  8  7  100  18  60  0  1.304348  0  0.17615  0  0  0  0  0  0  1;
 ];

SW.con = [ ... 
  1  100  69  1.06  0  9.9  -9.9  1.2  0.8  2.324  1  1  1;
 ];

PV.con = [ ... 
  2  100  69  0.4  1.045  0.5  -0.4  1.2  0.8  1  1;
  6  100  13.8  0  1.07  0.24  -0.06  1.2  0.8  1  1;
  3  100  69  0  1.01  0.4  0  1.2  0.8  1  1;
  8  100  18  0  1.09  0.24  -0.06  1.2  0.8  1  1;
 ];

PQ.con = [ ... 
  11      100     13.8  0.04323  0.02398      1.2      0.8  0  1
  13      100     13.8  0.08986  0.06564      1.2      0.8  0  1
   3      100       69    0.571   0.1411      1.2      0.8  0  1
   5      100       69  0.05965 0.004145      1.2      0.8  0  1
   2      100       69   0.1583   0.1285      1.2      0.8  0  1
   6      100     13.8  0.08286  0.08853      1.2      0.8  0  1
   4      100       69    0.471 -0.03029      1.2      0.8  0  1
  14      100     13.8   0.1194  0.05634      1.2      0.8  0  1
  12      100     13.8  0.06955  0.01832      1.2      0.8  0  1
  10      100     13.8  0.06892  0.06741      1.2      0.8  0  1
   9      100     13.8   0.3651   0.2145      1.2      0.8  0  1
 ];
 
 Ind.con=[...
  11      100     13.8       60    3    0    3.883     14.1    1.508    22.45        0        0     1095   0.7949 0.005775        0        0        0  0  1
  13      100     13.8       60    3    0   0.1038   0.8203   0.1612   0.8219        0        0    29.93   0.8766  0.09914        0        0        0  0  1
   3      100       69       60    3    0  0.01848   0.1394  0.02127  0.07911        0        0    1.911    1.424   0.7478        0        0        0  0  1
   5      100       69       60    3    0   0.5743    3.188   0.4526    3.863        0        0    94.56     1.21  0.04675        0        0        0  0  1
   2      100       69       60    3    0   0.2113    1.161   0.1908    1.048        0        0    29.05    1.027   0.1455        0        0        0  0  1
   6      100     13.8       60    3    0   0.3217     1.34   0.1289    1.872        0        0    84.67    1.746  0.07394        0        0        0  0  1
   4      100       69       60    3    0   0.1815     1.01   0.1051   0.7456        0        0     20.6    1.378   0.1982        0        0        0  0  1
  14      100     13.8       60    3    0   0.1142   0.7012   0.1551   0.9428        0        0    41.89    1.325  0.08923        0        0        0  0  1
  12      100     13.8       60    3    0    1.594    8.158    1.396      8.1        0        0    221.2    1.876  0.01585        0        0        0  0  1
  10      100     13.8       60    3    0    0.384    2.232   0.3892    1.756        0        0    84.05   0.9288  0.05708        0        0        0  0  1
   9      100     13.8       60    3    0   0.4216    4.232   0.5213    2.624        0        0    80.02    1.636  0.04787        0        0        0  0  1
 ];

Bus.names = {... 
  'Bus 01'; 'Bus 02'; 'Bus 03'; 'Bus 04'; 'Bus 05'; 
  'Bus 06'; 'Bus 07'; 'Bus 08'; 'Bus 09'; 'Bus 10'; 
  'Bus 11'; 'Bus 12'; 'Bus 13'; 'Bus 14'};

